* ----------------------------------------------------------- 74LS138 ------
*  3-Line To 8-Line Decoder/Demultiplexer
*
*  The TTL Logic Data Book, 1988, TI Pages 2-425 to 2-430
*  bss    3/16/94
*
.SUBCKT 74LS138 A B C G2ABAR G2BBAR G1 Y7 GND Y6 Y5 Y4 Y3 Y2 Y1 Y0 VCC
+ PARAMS: MNTYMXDLY=0 IO_LEVEL=0

U1LOG LOGICEXP(6,8) VCC GND
+     A B C G1 G2ABAR G2BBAR
+     Y0_O Y1_O Y2_O Y3_O Y4_O Y5_O Y6_O Y7_O
+     D0_GATE IO_LS MNTYMXDLY={MNTYMXDLY} IO_LEVEL={IO_LEVEL}
+
+  LOGIC:
+     abar = {~A}
+     bbar = {~B}
+     cbar = {~C}
+     enable = {(~G2ABAR) & (~G2BBAR) & G1}
+     Y0_O = {~(abar & bbar & cbar & enable)}
+     Y1_O = {~(A & bbar & cbar & enable)}
+     Y2_O = {~(abar & B & cbar & enable)}
+     Y3_O = {~(A & B & cbar & enable)}
+     Y4_O = {~(abar & bbar & C & enable)}
+     Y5_O = {~(A & bbar & C & enable)}
+     Y6_O = {~(abar & B & C & enable)}
+     Y7_O = {~(A & B & C & enable)}

U2DLY PINDLY(8,0,6) VCC GND
+     Y0_O Y1_O Y2_O Y3_O Y4_O Y5_O Y6_O Y7_O
+     A B C G1 G2ABAR G2BBAR
+     Y0 Y1 Y2 Y3 Y4 Y5 Y6 Y7
+     IO_LS MNTYMXDLY={MNTYMXDLY} IO_LEVEL={IO_LEVEL}
+
+  BOOLEAN:
+     IN = {CHANGED(A,0) | CHANGED(B,0) | CHANGED(C,0)}
+     INA = {CHANGED(A,0)}
+     INB = {CHANGED(B,0)}
+     INC = {CHANGED(C,0)}
+     ENBAR = {CHANGED(G2ABAR,0) | CHANGED(G2BBAR,0)}
+     EN = {CHANGED(G1,0)}
+
+  PINDLY:
+     Y0 = {
+       CASE(
+          ENBAR & TRN_LH, DELAY(-1,12ns,18ns),
+          ENBAR & TRN_HL, DELAY(-1,20ns,32ns),
+          EN & TRN_LH, DELAY(-1,14ns,26ns),
+          EN & TRN_HL, DELAY(-1,13ns,38ns),
+          IN & TRN_LH, DELAY(-1,11ns,20ns),
+          IN & TRN_HL, DELAY(-1,18ns,41ns),
+          DELAY(-1,21ns,42ns))}
+
+     Y1 = {
+       CASE(
+          ENBAR & TRN_LH, DELAY(-1,12ns,18ns),
+          ENBAR & TRN_HL, DELAY(-1,20ns,32ns),
+          EN & TRN_LH, DELAY(-1,14ns,26ns),
+          EN & TRN_HL, DELAY(-1,13ns,38ns),
+          INA & TRN_LH, DELAY(-1,21ns,27ns),
+          INA & TRN_HL, DELAY(-1,20ns,39ns),
+          (INB | INC) & TRN_LH, DELAY(-1,11ns,20ns),
+          (INB | INC) & TRN_HL, DELAY(-1,18ns,41ns),
+          DELAY(-1,22ns,42ns))}
+
+     Y2 = {
+       CASE(
+          ENBAR & TRN_LH, DELAY(-1,12ns,18ns),
+          ENBAR & TRN_HL, DELAY(-1,20ns,32ns),
+          EN & TRN_LH, DELAY(-1,14ns,26ns),
+          EN & TRN_HL, DELAY(-1,13ns,38ns),
+          INB & TRN_LH, DELAY(-1,21ns,27ns),
+          INB & TRN_HL, DELAY(-1,20ns,39ns),
+          (INA | INC) & TRN_LH, DELAY(-1,11ns,20ns),
+          (INA | INC) & TRN_HL, DELAY(-1,18ns,41ns),
+          DELAY(-1,22ns,42ns))}
+
+     Y3 = {
+       CASE(
+          ENBAR & TRN_LH, DELAY(-1,12ns,18ns),
+          ENBAR & TRN_HL, DELAY(-1,20ns,32ns),
+          EN & TRN_LH, DELAY(-1,14ns,26ns),
+          EN & TRN_HL, DELAY(-1,13ns,38ns),
+          (INA | INB) & TRN_LH, DELAY(-1,21ns,27ns),
+          (INA | INB) & TRN_HL, DELAY(-1,20ns,39ns),
+          INC & TRN_LH, DELAY(-1,11ns,20ns),
+          INC & TRN_HL, DELAY(-1,18ns,41ns),
+          DELAY(-1,22ns,42ns))}
+
+     Y4 = {
+       CASE(
+          ENBAR & TRN_LH, DELAY(-1,12ns,18ns),
+          ENBAR & TRN_HL, DELAY(-1,20ns,32ns),
+          EN & TRN_LH, DELAY(-1,14ns,26ns),
+          EN & TRN_HL, DELAY(-1,13ns,38ns),
+          INC & TRN_LH, DELAY(-1,21ns,27ns),
+          INC & TRN_HL, DELAY(-1,20ns,39ns),
+          (INB | INA) & TRN_LH, DELAY(-1,11ns,20ns),
+          (INB | INA) & TRN_HL, DELAY(-1,18ns,41ns),
+          DELAY(-1,22ns,42ns))}
+
+     Y5 = {
+       CASE(
+          ENBAR & TRN_LH, DELAY(-1,12ns,18ns),
+          ENBAR & TRN_HL, DELAY(-1,20ns,32ns),
+          EN & TRN_LH, DELAY(-1,14ns,26ns),
+          EN & TRN_HL, DELAY(-1,13ns,38ns),
+          (INA | INC) & TRN_LH, DELAY(-1,21ns,27ns),
+          (INA | INC) & TRN_HL, DELAY(-1,20ns,39ns),
+          INB & TRN_LH, DELAY(-1,11ns,20ns),
+          INB & TRN_HL, DELAY(-1,18ns,41ns),
+          DELAY(-1,22ns,42ns))}
+
+     Y6 = {
+       CASE(
+          ENBAR & TRN_LH, DELAY(-1,12ns,18ns),
+          ENBAR & TRN_HL, DELAY(-1,20ns,32ns),
+          EN & TRN_LH, DELAY(-1,14ns,26ns),
+          EN & TRN_HL, DELAY(-1,13ns,38ns),
+          (INB | INC) & TRN_LH, DELAY(-1,21ns,27ns),
+          (INB | INC) & TRN_HL, DELAY(-1,20ns,39ns),
+          INA & TRN_LH, DELAY(-1,11ns,20ns),
+          INA & TRN_HL, DELAY(-1,18ns,41ns),
+          DELAY(-1,22ns,42ns))}
+
+     Y7 = {
+       CASE(
+          ENBAR & TRN_LH, DELAY(-1,12ns,18ns),
+          ENBAR & TRN_HL, DELAY(-1,20ns,32ns),
+          EN & TRN_LH, DELAY(-1,14ns,26ns),
+          EN & TRN_HL, DELAY(-1,13ns,38ns),
+          IN & TRN_LH, DELAY(-1,21ns,27ns),
+          IN & TRN_HL, DELAY(-1,20ns,39ns),
+          DELAY(-1,22ns,42ns))}

.ENDS 74LS138
